data_m2_o7_o24_f0_nbo_zero
_audit_creation_date              2020-06-15T01:58:03-0400
_audit_creation_method            'faps 1.7.2.0'
_symmetry_space_group_name_H-M    P1
_symmetry_Int_Tables_number       1
_space_group_crystal_system       monoclinic
_net_charge                       0.0
loop_
_symmetry_equiv_pos_as_xyz
  x,y,z
_cell_length_a                    41.4216186
_cell_length_b                    35.5714683
_cell_length_c                    21.2233728
_cell_angle_alpha                 90.0
_cell_angle_beta                  59.4243629
_cell_angle_gamma                 90.0
_cell_volume                      26923.122548839194

loop_
_atom_site_label
_atom_site_type_symbol
_atom_site_description
_atom_site_fract_x
_atom_site_fract_y
_atom_site_fract_z
_atom_type_partial_charge
O1    O     O_R   0.945192 0.467598 0.056641 -0.318950
O2    O     O_R   0.054808 0.467598 0.943360 -0.318950
O3    O     O_R   0.445192 0.967598 0.056641 -0.318950
O4    O     O_R   0.554808 0.967598 0.943360 -0.318950
O5    O     O_R   0.945190 0.531661 0.053744 -0.319111
O6    O     O_R   0.054810 0.531661 0.946256 -0.319111
O7    O     O_R   0.445190 0.031661 0.053744 -0.319111
O8    O     O_R   0.554810 0.031661 0.946256 -0.319111
C1    C     C_R   0.926813 0.499635 0.073690 0.269505
C2    C     C_R   0.073187 0.499635 0.926310 0.269505
C3    C     C_R   0.426813 0.999635 0.073690 0.269505
C4    C     C_R   0.573187 0.999635 0.926310 0.269505
O9    O     O_R   0.001557 0.467494 0.089273 -0.319412
O10   O     O_R   0.998443 0.467494 0.910727 -0.319412
O11   O     O_R   0.501557 0.967494 0.089273 -0.319412
O12   O     O_R   0.498443 0.967494 0.910727 -0.319412
O13   O     O_R   0.999390 0.531738 0.091485 -0.319200
O14   O     O_R   0.000610 0.531738 0.908516 -0.319199
O15   O     O_R   0.499390 0.031738 0.091485 -0.319200
O16   O     O_R   0.500610 0.031738 0.908516 -0.319199
C5    C     C_R   0.000673 0.499611 0.120254 0.269654
C6    C     C_R   0.999327 0.499611 0.879746 0.269653
C7    C     C_R   0.500673 0.999611 0.120254 0.269654
C8    C     C_R   0.499327 0.999611 0.879746 0.269653
Cu1   Cu    Cu3+1 1.000000 0.462625 0.000000 0.513729
Cu2   Cu    Cu3+1 0.500000 0.962625 0.000000 0.513729
Cu3   Cu    Cu3+1 1.000000 0.536621 0.000000 0.513809
Cu4   Cu    Cu3+1 0.500000 0.036621 0.000000 0.513809
C9    C     C_3   0.967095 0.508740 0.262261 -0.059863
C10   C     C_3   0.032905 0.508740 0.737739 -0.059862
C11   C     C_3   0.467095 0.008740 0.262261 -0.059863
C12   C     C_3   0.532905 0.008740 0.737739 -0.059862
C13   C     C_3   0.991796 0.533680 0.278340 -0.060075
C14   C     C_3   0.008204 0.533680 0.721660 -0.060075
C15   C     C_3   0.491796 0.033680 0.278340 -0.060075
C16   C     C_3   0.508204 0.033680 0.721660 -0.060075
H1    H     H_    0.984290 0.561703 0.304886 0.090745
H2    H     H_    0.015710 0.561703 0.695114 0.090745
H3    H     H_    0.484290 0.061703 0.304886 0.090745
H4    H     H_    0.515710 0.061703 0.695114 0.090745
H5    H     H_    0.939149 0.516117 0.270726 0.090846
H6    H     H_    0.060851 0.516117 0.729274 0.090846
H7    H     H_    0.439149 0.016117 0.270726 0.090846
H8    H     H_    0.560851 0.016117 0.729274 0.090846
C17   C     C_3   0.000958 0.499903 0.308933 0.018189
C18   C     C_3   0.999042 0.499903 0.691067 0.018190
C19   C     C_3   0.500958 0.999903 0.308933 0.018189
C20   C     C_3   0.499042 0.999903 0.691067 0.018190
C21   C     C_3   0.976251 0.474943 0.294179 -0.060292
C22   C     C_3   0.023749 0.474943 0.705822 -0.060292
C23   C     C_3   0.476251 0.974943 0.294179 -0.060292
C24   C     C_3   0.523749 0.974943 0.705822 -0.060292
C25   C     C_3   0.010033 0.465826 0.219848 -0.060381
C26   C     C_3   0.989967 0.465826 0.780152 -0.060381
C27   C     C_3   0.510033 0.965826 0.219848 -0.060381
C28   C     C_3   0.489967 0.965826 0.780152 -0.060381
C29   C     C_3   0.034772 0.490799 0.235908 -0.060508
C30   C     C_3   0.965228 0.490799 0.764093 -0.060508
C31   C     C_3   0.534772 0.990799 0.235908 -0.060508
C32   C     C_3   0.465228 0.990799 0.764093 -0.060508
C33   C     C_3   0.025622 0.524560 0.203954 -0.060618
C34   C     C_3   0.974378 0.524560 0.796046 -0.060618
C35   C     C_3   0.525622 0.024560 0.203954 -0.060618
C36   C     C_3   0.474378 0.024560 0.796046 -0.060618
C37   C     C_3   0.000891 0.499614 0.189236 0.018201
C38   C     C_3   0.999108 0.499614 0.810764 0.018199
C39   C     C_3   0.500891 0.999614 0.189236 0.018201
C40   C     C_3   0.499108 0.999614 0.810764 0.018199
H9    H     H_    0.955854 0.454432 0.333746 0.091952
H10   H     H_    0.044146 0.454432 0.666254 0.091952
H11   H     H_    0.455854 0.954432 0.333746 0.091952
H12   H     H_    0.544146 0.954432 0.666254 0.091952
H13   H     H_    0.017614 0.437700 0.193741 0.093363
H14   H     H_    0.982386 0.437700 0.806259 0.093363
H15   H     H_    0.517614 0.937700 0.193741 0.093363
H16   H     H_    0.482386 0.937700 0.806259 0.093363
H17   H     H_    0.062818 0.483346 0.226844 0.093321
H18   H     H_    0.937182 0.483346 0.773157 0.093321
H19   H     H_    0.562818 0.983346 0.226844 0.093321
H20   H     H_    0.437182 0.983346 0.773157 0.093321
H21   H     H_    0.046033 0.545054 0.164366 0.091813
H22   H     H_    0.953967 0.545054 0.835635 0.091813
H23   H     H_    0.546033 0.045054 0.164366 0.091813
H24   H     H_    0.453967 0.045054 0.835635 0.091813
C41   C     C_R   0.672957 0.499922 0.271432 -0.068221
C42   C     C_R   0.327042 0.499922 0.728568 -0.068220
C43   C     C_R   0.172957 0.999922 0.271432 -0.068221
C44   C     C_R   0.827042 0.999922 0.728568 -0.068220
H25   H     H_    0.687998 0.499894 0.212285 0.088658
H26   H     H_    0.312002 0.499894 0.787715 0.088658
H27   H     H_    0.187998 0.999894 0.212285 0.088658
H28   H     H_    0.812002 0.999894 0.787715 0.088658
C45   C     C_R   0.634182 0.499997 0.310000 -0.051982
C46   C     C_R   0.365817 0.499997 0.690000 -0.051983
C47   C     C_R   0.134182 0.999997 0.310000 -0.051982
C48   C     C_R   0.865817 0.999997 0.690000 -0.051983
H29   H     H_    0.619500 0.500022 0.280047 0.098399
H30   H     H_    0.380500 0.500022 0.719953 0.098399
H31   H     H_    0.119500 0.000022 0.280047 0.098399
H32   H     H_    0.880500 0.000022 0.719953 0.098399
C49   C     C_R   0.614557 0.500034 0.385786 0.028731
C50   C     C_R   0.385443 0.500034 0.614214 0.028731
C51   C     C_R   0.114557 0.000034 0.385786 0.028731
C52   C     C_R   0.885443 0.000034 0.614214 0.028731
C53   C     C_R   0.634360 0.499998 0.422254 -0.051983
C54   C     C_R   0.365640 0.499998 0.577747 -0.051983
C55   C     C_R   0.134360 0.999998 0.422254 -0.051983
C56   C     C_R   0.865640 0.999998 0.577747 -0.051983
H33   H     H_    0.619818 0.500024 0.481351 0.098397
H34   H     H_    0.380182 0.500024 0.518649 0.098397
H35   H     H_    0.119818 0.000024 0.481351 0.098397
H36   H     H_    0.880182 0.000024 0.518649 0.098397
C57   C     C_R   0.673136 0.499923 0.383487 -0.068226
C58   C     C_R   0.326864 0.499923 0.616513 -0.068226
C59   C     C_R   0.173136 0.999923 0.383487 -0.068226
C60   C     C_R   0.826864 0.999923 0.616513 -0.068226
H37   H     H_    0.688317 0.499896 0.412495 0.088654
H38   H     H_    0.311683 0.499896 0.587505 0.088654
H39   H     H_    0.188317 0.999896 0.412495 0.088654
H40   H     H_    0.811683 0.999896 0.587505 0.088654
C61   C     C_R   0.692568 0.499884 0.307991 -0.030777
C62   C     C_R   0.307432 0.499884 0.692009 -0.030777
C63   C     C_R   0.192568 0.999884 0.307991 -0.030777
C64   C     C_R   0.807432 0.999884 0.692009 -0.030777
C65   C     C_1   0.733050 0.499812 0.267613 -0.018576
C66   C     C_1   0.266950 0.499812 0.732388 -0.018576
C67   C     C_1   0.233050 0.999812 0.267613 -0.018576
C68   C     C_1   0.766950 0.999812 0.732388 -0.018576
C69   C     C_1   0.766983 0.499761 0.233743 -0.018518
C70   C     C_1   0.233017 0.499761 0.766257 -0.018518
C71   C     C_1   0.266983 0.999761 0.233743 -0.018518
C72   C     C_1   0.733017 0.999761 0.766257 -0.018518
C73   C     C_R   0.827008 0.533172 0.172218 -0.068447
C74   C     C_R   0.172992 0.533172 0.827783 -0.068447
C75   C     C_R   0.327008 0.033172 0.172218 -0.068447
C76   C     C_R   0.672992 0.033172 0.827783 -0.068447
H41   H     H_    0.811915 0.559515 0.186104 0.088815
H42   H     H_    0.188085 0.559515 0.813896 0.088815
H43   H     H_    0.311915 0.059515 0.186104 0.088815
H44   H     H_    0.688085 0.059515 0.813896 0.088815
C77   C     C_R   0.865782 0.533200 0.133396 -0.053116
C78   C     C_R   0.134218 0.533200 0.866604 -0.053116
C79   C     C_R   0.365782 0.033200 0.133396 -0.053116
C80   C     C_R   0.634218 0.033200 0.866604 -0.053116
H45   H     H_    0.880408 0.559788 0.117514 0.098249
H46   H     H_    0.119592 0.559788 0.882487 0.098249
H47   H     H_    0.380408 0.059788 0.117514 0.098249
H48   H     H_    0.619592 0.059788 0.882487 0.098249
C81   C     C_R   0.885475 0.499657 0.115201 0.027205
C82   C     C_R   0.114525 0.499657 0.884799 0.027205
C83   C     C_R   0.385475 0.999657 0.115201 0.027205
C84   C     C_R   0.614525 0.999657 0.884799 0.027205
C85   C     C_R   0.865740 0.466144 0.136513 -0.052641
C86   C     C_R   0.134260 0.466144 0.863487 -0.052641
C87   C     C_R   0.365740 0.966144 0.136513 -0.052641
C88   C     C_R   0.634260 0.966144 0.863487 -0.052641
H49   H     H_    0.880336 0.439535 0.123102 0.098471
H50   H     H_    0.119664 0.439535 0.876898 0.098471
H51   H     H_    0.380336 0.939535 0.123102 0.098471
H52   H     H_    0.619664 0.939535 0.876898 0.098471
C89   C     C_R   0.826964 0.466235 0.175332 -0.068320
C90   C     C_R   0.173036 0.466235 0.824669 -0.068320
C91   C     C_R   0.326964 0.966235 0.175332 -0.068320
C92   C     C_R   0.673036 0.966235 0.824669 -0.068320
H53   H     H_    0.811835 0.439916 0.191669 0.088839
H54   H     H_    0.188165 0.439916 0.808331 0.088839
H55   H     H_    0.311835 0.939916 0.191669 0.088839
H56   H     H_    0.688165 0.939916 0.808331 0.088839
C93   C     C_R   0.807465 0.499720 0.193303 -0.030894
C94   C     C_R   0.192535 0.499720 0.806697 -0.030894
C95   C     C_R   0.307465 0.999720 0.193303 -0.030894
C96   C     C_R   0.692535 0.999720 0.806697 -0.030894
O17   O     O_R   0.031965 0.554989 0.467269 -0.318979
O18   O     O_R   0.968035 0.554989 0.532731 -0.318979
O19   O     O_R   0.531965 0.054989 0.467269 -0.318979
O20   O     O_R   0.468035 0.054989 0.532731 -0.318979
C97   C     C_R   1.000000 0.573358 0.500000 0.269486
C98   C     C_R   0.500000 0.073358 0.500000 0.269486
O21   O     O_R   0.032549 0.499021 0.377315 -0.319379
O22   O     O_R   0.967451 0.499021 0.622685 -0.319379
O23   O     O_R   0.532549 0.999021 0.377315 -0.319379
O24   O     O_R   0.467451 0.999021 0.622685 -0.319379
O25   O     O_R   0.968469 0.501213 0.439984 -0.319202
O26   O     O_R   0.031531 0.501213 0.560017 -0.319203
O27   O     O_R   0.468469 0.001213 0.439984 -0.319202
O28   O     O_R   0.531531 0.001213 0.560017 -0.319203
C99   C     C_R   0.000666 0.500078 0.378420 0.269670
C100  C     C_R   0.999334 0.500078 0.621580 0.269670
C101  C     C_R   0.500666 0.000078 0.378420 0.269670
C102  C     C_R   0.499334 0.000078 0.621580 0.269670
Cu5   Cu    Cu3+1 0.036926 0.500163 0.463896 0.513688
Cu6   Cu    Cu3+1 0.963074 0.500163 0.536105 0.513688
Cu7   Cu    Cu3+1 0.536926 0.000163 0.463896 0.513688
Cu8   Cu    Cu3+1 0.463074 0.000163 0.536105 0.513688
O29   O     O_R   0.031951 0.445334 0.470244 -0.319146
O30   O     O_R   0.968049 0.445334 0.529756 -0.319146
O31   O     O_R   0.531951 0.945334 0.470244 -0.319146
O32   O     O_R   0.468049 0.945334 0.529756 -0.319146
C103  C     C_R   0.000000 0.426967 0.500000 0.269665
C104  C     C_R   0.500000 0.926967 0.500000 0.269665
O33   O     O_R   0.500094 0.554997 0.553591 -0.319584
O34   O     O_R   0.499906 0.554997 0.446410 -0.319584
O35   O     O_R   0.000094 0.054997 0.553591 -0.319584
O36   O     O_R   0.999906 0.054997 0.446410 -0.319584
C105  C     C_R   0.500000 0.573381 0.500000 0.269414
C106  C     C_R   1.000000 0.073381 0.500000 0.269414
O37   O     O_R   0.554908 0.500118 0.498938 -0.319529
O38   O     O_R   0.445092 0.500118 0.501063 -0.319529
O39   O     O_R   0.054908 0.000118 0.498938 -0.319529
O40   O     O_R   0.945092 0.000118 0.501063 -0.319529
O41   O     O_R   0.554744 0.500108 0.391755 -0.319530
O42   O     O_R   0.445256 0.500108 0.608245 -0.319530
O43   O     O_R   0.054744 0.000108 0.391755 -0.319530
O44   O     O_R   0.945256 0.000108 0.608245 -0.319530
C107  C     C_R   0.573217 0.500095 0.427008 0.269407
C108  C     C_R   0.426783 0.500095 0.572992 0.269407
C109  C     C_R   0.073217 0.000095 0.427008 0.269407
C110  C     C_R   0.926783 0.000095 0.572992 0.269407
Cu9   Cu    Cu3+1 0.500093 0.500152 0.561684 0.514573
Cu10  Cu    Cu3+1 0.499907 0.500152 0.438317 0.514574
Cu11  Cu    Cu3+1 0.000093 0.000152 0.561684 0.514573
Cu12  Cu    Cu3+1 0.999907 0.000152 0.438317 0.514574
O45   O     O_R   0.500078 0.445308 0.553608 -0.319567
O46   O     O_R   0.499922 0.445308 0.446392 -0.319568
O47   O     O_R   0.000078 0.945308 0.553608 -0.319567
O48   O     O_R   0.999922 0.945308 0.446392 -0.319568
C111  C     C_R   0.500000 0.426926 0.500000 0.269473
C112  C     C_R   0.000000 0.926926 0.500000 0.269473
C113  C     C_R   0.500071 0.327076 0.556076 -0.068313
C114  C     C_R   0.499929 0.327076 0.443924 -0.068313
C115  C     C_R   0.000071 0.827076 0.556076 -0.068313
C116  C     C_R   0.999929 0.827076 0.443924 -0.068313
H57   H     H_    0.500127 0.311897 0.600140 0.088620
H58   H     H_    0.499873 0.311897 0.399860 0.088620
H59   H     H_    0.000127 0.811897 0.600140 0.088620
H60   H     H_    0.999873 0.811897 0.399860 0.088620
C117  C     C_R   0.500071 0.365900 0.556180 -0.051892
C118  C     C_R   0.499929 0.365900 0.443820 -0.051892
C119  C     C_R   0.000071 0.865900 0.556180 -0.051892
C120  C     C_R   0.999929 0.865900 0.443820 -0.051892
H61   H     H_    0.500127 0.380555 0.600715 0.098445
H62   H     H_    0.499872 0.380555 0.399286 0.098445
H63   H     H_    0.000127 0.880555 0.600715 0.098445
H64   H     H_    0.999872 0.880555 0.399286 0.098445
C121  C     C_R   0.500000 0.385588 0.500000 0.028953
C122  C     C_R   0.000000 0.885588 0.500000 0.028953
C123  C     C_R   0.500000 0.307590 0.500000 -0.030837
C124  C     C_R   0.000000 0.807590 0.500000 -0.030837
C125  C     C_1   0.500000 0.267117 0.500000 -0.018614
C126  C     C_1   0.000000 0.767117 0.500000 -0.018614
C127  C     C_1   0.000000 0.733165 0.500000 -0.018557
C128  C     C_1   0.500000 0.233165 0.500000 -0.018557
C129  C     C_R   0.966591 0.673206 0.534176 -0.068504
C130  C     C_R   0.033409 0.673206 0.465824 -0.068504
C131  C     C_R   0.466591 0.173206 0.534176 -0.068504
C132  C     C_R   0.533409 0.173206 0.465824 -0.068504
H65   H     H_    0.940339 0.688385 0.561030 0.088823
H66   H     H_    0.059661 0.688385 0.438970 0.088823
H67   H     H_    0.440339 0.188385 0.561030 0.088823
H68   H     H_    0.559661 0.188385 0.438970 0.088823
C133  C     C_R   0.966529 0.634382 0.534240 -0.052854
C134  C     C_R   0.033471 0.634382 0.465761 -0.052854
C135  C     C_R   0.466529 0.134382 0.534240 -0.052854
C136  C     C_R   0.533471 0.134382 0.465761 -0.052854
H69   H     H_    0.939996 0.619729 0.561381 0.098512
H70   H     H_    0.060004 0.619729 0.438619 0.098512
H71   H     H_    0.439996 0.119729 0.561381 0.098512
H72   H     H_    0.560004 0.119729 0.438619 0.098512
C137  C     C_R   0.000000 0.614694 0.500000 0.027149
C138  C     C_R   0.500000 0.114694 0.500000 0.027149
C139  C     C_R   0.000000 0.692692 0.500000 -0.031010
C140  C     C_R   0.500000 0.192692 0.500000 -0.031010
C141  C     C_R   0.499900 0.673235 0.443953 -0.068314
C142  C     C_R   0.500100 0.673235 0.556047 -0.068314
C143  C     C_R   0.999900 0.173235 0.443953 -0.068314
C144  C     C_R   0.000100 0.173235 0.556047 -0.068314
H73   H     H_    0.499822 0.688413 0.399912 0.088621
H74   H     H_    0.500178 0.688413 0.600088 0.088621
H75   H     H_    0.999822 0.188413 0.399912 0.088621
H76   H     H_    0.000178 0.188413 0.600088 0.088621
C145  C     C_R   0.499900 0.634410 0.443849 -0.051901
C146  C     C_R   0.500100 0.634410 0.556151 -0.051900
C147  C     C_R   0.999900 0.134410 0.443849 -0.051901
C148  C     C_R   0.000100 0.134410 0.556151 -0.051900
H77   H     H_    0.499821 0.619755 0.399338 0.098438
H78   H     H_    0.500179 0.619755 0.600662 0.098438
H79   H     H_    0.999821 0.119755 0.399338 0.098438
H80   H     H_    0.000179 0.119755 0.600662 0.098438
C149  C     C_R   0.500000 0.614720 0.500000 0.028944
C150  C     C_R   1.000000 0.114720 0.500000 0.028944
C151  C     C_R   0.500000 0.692722 0.500000 -0.030847
C152  C     C_R   1.000000 0.192722 0.500000 -0.030847
C153  C     C_1   0.500000 0.733197 0.500000 -0.018640
C154  C     C_1   0.000000 0.233197 0.500000 -0.018640
C155  C     C_1   0.000000 0.267151 0.500000 -0.018584
C156  C     C_1   0.500000 0.767151 0.500000 -0.018584
C157  C     C_R   0.966610 0.327113 0.531001 -0.068459
C158  C     C_R   0.033389 0.327113 0.468999 -0.068459
C159  C     C_R   0.466610 0.827113 0.531001 -0.068459
C160  C     C_R   0.533389 0.827113 0.468999 -0.068459
H81   H     H_    0.940373 0.311935 0.555361 0.088758
H82   H     H_    0.059627 0.311935 0.444639 0.088758
H83   H     H_    0.440373 0.811935 0.555361 0.088758
H84   H     H_    0.559627 0.811935 0.444639 0.088758
C161  C     C_R   0.966548 0.365938 0.531060 -0.052745
C162  C     C_R   0.033451 0.365938 0.468941 -0.052745
C163  C     C_R   0.466548 0.865938 0.531060 -0.052745
C164  C     C_R   0.533451 0.865938 0.468941 -0.052745
H85   H     H_    0.940030 0.380592 0.555677 0.098290
H86   H     H_    0.059970 0.380592 0.444323 0.098290
H87   H     H_    0.440030 0.880592 0.555677 0.098290
H88   H     H_    0.559970 0.880592 0.444323 0.098290
C165  C     C_R   0.000000 0.385628 0.500000 0.027697
C166  C     C_R   0.500000 0.885628 0.500000 0.027697
C167  C     C_R   0.000000 0.307626 0.500000 -0.030918
C168  C     C_R   0.500000 0.807626 0.500000 -0.030918

loop_
_geom_bond_atom_site_label_1
_geom_bond_atom_site_label_2
_geom_bond_distance
_geom_bond_site_symmetry_2
_ccdc_geom_bond_type
O1    Cu1   1.963 .      S
O2    Cu1   1.963 1_456  S
O3    Cu2   1.963 .      S
O4    Cu2   1.963 1_556  S
O5    Cu3   1.963 .      S
O6    Cu3   1.963 1_456  S
O7    Cu4   1.963 .      S
O8    Cu4   1.963 1_556  S
C1    C81   1.474 .      S
C2    C82   1.474 .      S
C3    C83   1.474 .      S
C4    C84   1.474 .      S
O9    Cu1   1.936 1_455  S
O10   Cu1   1.936 1_556  S
O11   Cu2   1.936 .      S
O12   Cu2   1.936 1_556  S
O13   Cu3   1.937 .      S
O14   Cu3   1.937 1_456  S
O15   Cu4   1.937 .      S
O16   Cu4   1.937 1_556  S
C5    C37   1.469 .      S
C6    C38   1.469 .      S
C7    C39   1.469 .      S
C8    C40   1.469 .      S
Cu1   O2    1.963 1_654  S
Cu1   O9    1.936 1_655  S
Cu1   O10   1.936 1_554  S
Cu1   Cu3   2.632 .      S
Cu2   O4    1.963 1_554  S
Cu2   O12   1.936 1_554  S
Cu2   Cu4   2.632 1_565  S
Cu3   O6    1.963 1_654  S
Cu3   O14   1.937 1_654  S
Cu4   O8    1.963 1_554  S
Cu4   O16   1.937 1_554  S
Cu4   Cu2   2.632 1_545  S
C9    C13   1.518 .      S
C9    H5    1.109 .      S
C9    C21   1.520 .      S
C9    C37   1.503 1_655  S
C10   C14   1.518 .      S
C10   H6    1.109 .      S
C10   C22   1.520 .      S
C10   C38   1.503 1_455  S
C11   C15   1.518 .      S
C11   H7    1.109 .      S
C11   C23   1.520 1_545  S
C11   C39   1.503 1_545  S
C12   C16   1.518 .      S
C12   H8    1.109 .      S
C12   C24   1.520 1_545  S
C12   C40   1.503 1_545  S
C13   H1    1.109 .      S
C13   C17   1.503 1_655  S
C13   C33   1.520 1_655  S
C14   H2    1.109 .      S
C14   C18   1.503 1_455  S
C14   C34   1.520 1_455  S
C15   H3    1.109 .      S
C15   C19   1.503 1_545  S
C15   C35   1.520 .      S
C16   H4    1.109 .      S
C16   C20   1.503 1_545  S
C16   C36   1.520 .      S
C17   C13   1.503 1_455  S
C17   C21   1.503 1_455  S
C17   C29   1.503 .      S
C17   C99   1.469 .      S
C18   C14   1.503 1_655  S
C18   C22   1.503 1_655  S
C18   C30   1.503 .      S
C18   C100  1.469 .      S
C19   C15   1.503 1_565  S
C19   C23   1.503 .      S
C19   C31   1.503 .      S
C19   C101  1.469 1_565  S
C20   C16   1.503 1_565  S
C20   C24   1.503 .      S
C20   C32   1.503 .      S
C20   C102  1.469 1_565  S
C21   C17   1.503 1_655  S
C21   C25   1.519 1_655  S
C21   H9    1.109 .      S
C22   C18   1.503 1_455  S
C22   C26   1.519 1_455  S
C22   H10   1.109 .      S
C23   C11   1.520 1_565  S
C23   C27   1.519 .      S
C23   H11   1.109 .      S
C24   C12   1.520 1_565  S
C24   C28   1.519 .      S
C24   H12   1.109 .      S
C25   C21   1.519 1_455  S
C25   C29   1.520 .      S
C25   C37   1.503 .      S
C25   H13   1.109 .      S
C26   C22   1.519 1_655  S
C26   C30   1.520 .      S
C26   C38   1.503 .      S
C26   H14   1.109 .      S
C27   C31   1.520 .      S
C27   C39   1.503 .      S
C27   H15   1.109 .      S
C28   C32   1.520 .      S
C28   C40   1.503 .      S
C28   H16   1.109 .      S
C29   C33   1.519 .      S
C29   H17   1.109 .      S
C30   C34   1.519 .      S
C30   H18   1.109 .      S
C31   C35   1.519 1_565  S
C31   H19   1.109 .      S
C32   C36   1.519 1_565  S
C32   H20   1.109 .      S
C33   C13   1.520 1_455  S
C33   C37   1.503 .      S
C33   H21   1.109 .      S
C34   C14   1.520 1_655  S
C34   C38   1.503 .      S
C34   H22   1.109 .      S
C35   C31   1.519 1_545  S
C35   C39   1.503 1_545  S
C35   H23   1.109 .      S
C36   C32   1.519 1_545  S
C36   C40   1.503 1_545  S
C36   H24   1.109 .      S
C37   C9    1.503 1_455  S
C38   C10   1.503 1_655  S
C39   C11   1.503 1_565  S
C39   C35   1.503 1_565  S
C40   C12   1.503 1_565  S
C40   C36   1.503 1_565  S
C41   H25   1.081 .      S
C42   H26   1.081 .      S
C43   H27   1.081 .      S
C44   H28   1.081 .      S
C45   H29   1.080 .      S
C46   H30   1.080 .      S
C47   H31   1.080 1_565  S
C48   H32   1.080 1_565  S
H31   C47   1.080 1_545  S
H32   C48   1.080 1_545  S
C49   C107  1.474 .      S
C50   C108  1.474 .      S
C51   C109  1.474 .      S
C52   C110  1.474 .      S
C53   H33   1.080 .      S
C54   H34   1.080 .      S
C55   H35   1.080 1_565  S
C56   H36   1.080 1_565  S
H35   C55   1.080 1_545  S
H36   C56   1.080 1_545  S
C57   H37   1.081 .      S
C58   H38   1.081 .      S
C59   H39   1.081 .      S
C60   H40   1.081 .      S
C61   C65   1.444 .      S
C62   C66   1.444 .      S
C63   C67   1.444 .      S
C64   C68   1.444 .      S
C69   C93   1.444 .      S
C70   C94   1.444 .      S
C71   C95   1.444 .      S
C72   C96   1.444 .      S
C73   H41   1.081 .      S
C74   H42   1.081 .      S
C75   H43   1.081 .      S
C76   H44   1.081 .      S
C77   H45   1.080 .      S
C78   H46   1.080 .      S
C79   H47   1.080 .      S
C80   H48   1.080 .      S
C85   H49   1.080 .      S
C86   H50   1.080 .      S
C87   H51   1.080 .      S
C88   H52   1.080 .      S
C89   H53   1.081 .      S
C90   H54   1.081 .      S
C91   H55   1.081 .      S
C92   H56   1.081 .      S
O17   Cu5   1.959 .      S
O18   Cu6   1.959 .      S
O19   Cu7   1.959 .      S
O20   Cu8   1.959 .      S
C97   C137  1.470 1_655  S
C98   C138  1.470 .      S
O21   Cu5   1.936 .      S
O22   Cu6   1.936 .      S
O23   Cu7   1.936 1_565  S
O24   Cu8   1.936 1_565  S
O25   Cu6   1.936 .      S
O26   Cu5   1.936 .      S
O27   Cu8   1.936 .      S
O28   Cu7   1.936 .      S
C101  C19   1.469 1_545  S
C102  C20   1.469 1_545  S
Cu5   Cu6   2.634 1_455  S
Cu5   O29   1.959 .      S
Cu6   Cu5   2.634 1_655  S
Cu6   O30   1.959 .      S
Cu7   O23   1.936 1_545  S
Cu7   Cu8   2.634 .      S
Cu7   O31   1.959 1_545  S
Cu8   O24   1.936 1_545  S
Cu8   O32   1.959 1_545  S
O31   Cu7   1.959 1_565  S
O32   Cu8   1.959 1_565  S
C103  C165  1.470 .      S
C104  C166  1.470 .      S
O33   Cu9   1.958 .      S
O34   Cu10  1.958 .      S
O35   Cu11  1.958 .      S
O36   Cu12  1.958 .      S
C105  C149  1.470 .      S
C106  C150  1.470 .      S
O37   Cu9   1.963 .      S
O38   Cu10  1.963 .      S
O39   Cu11  1.963 .      S
O40   Cu12  1.963 .      S
O41   Cu10  1.963 .      S
O42   Cu9   1.963 .      S
O43   Cu12  1.963 1_455  S
O44   Cu11  1.963 1_655  S
Cu9   Cu10  2.622 .      S
Cu9   O45   1.958 .      S
Cu10  O46   1.958 .      S
Cu11  O44   1.963 1_455  S
Cu11  Cu12  2.622 1_455  S
Cu11  O47   1.958 1_545  S
Cu12  O43   1.963 1_655  S
Cu12  Cu11  2.622 1_655  S
Cu12  O48   1.958 1_545  S
O47   Cu11  1.958 1_565  S
O48   Cu12  1.958 1_565  S
C111  C121  1.470 .      S
C112  C122  1.470 .      S
C113  H57   1.081 .      S
C114  H58   1.081 .      S
C115  H59   1.081 .      S
C116  H60   1.081 .      S
C117  H61   1.080 .      S
C118  H62   1.080 .      S
C119  H63   1.080 .      S
C120  H64   1.080 .      S
C123  C125  1.440 .      S
C124  C126  1.440 .      S
C127  C139  1.440 .      S
C128  C140  1.440 .      S
C129  H65   1.081 .      S
C130  H66   1.081 .      S
C131  H67   1.081 .      S
C132  H68   1.081 .      S
C133  H69   1.080 .      S
C134  H70   1.080 .      S
C135  H71   1.080 .      S
C136  H72   1.080 .      S
C137  C97   1.470 1_455  S
C141  H73   1.081 .      S
C142  H74   1.081 .      S
C143  H75   1.081 .      S
C144  H76   1.081 .      S
C145  H77   1.080 .      S
C146  H78   1.080 .      S
C147  H79   1.080 .      S
C148  H80   1.080 .      S
C151  C153  1.440 .      S
C152  C154  1.440 1_655  S
C154  C152  1.440 1_455  S
C155  C167  1.440 .      S
C156  C168  1.440 .      S
C157  H81   1.081 .      S
C158  H82   1.081 .      S
C159  H83   1.081 .      S
C160  H84   1.081 .      S
C161  H85   1.080 .      S
C162  H86   1.080 .      S
C163  H87   1.080 .      S
C164  H88   1.080 .      S
O1    C1    1.315 .      A
O2    C2    1.315 .      A
O3    C3    1.315 .      A
O4    C4    1.315 .      A
O5    C1    1.315 .      A
O6    C2    1.315 .      A
O7    C3    1.315 1_545  A
O8    C4    1.315 1_545  A
C3    O7    1.315 1_565  A
C4    O8    1.315 1_565  A
O9    C5    1.309 .      A
O10   C6    1.309 .      A
O11   C7    1.309 .      A
O12   C8    1.309 .      A
O13   C5    1.309 1_655  A
O14   C6    1.309 1_455  A
O15   C7    1.309 1_545  A
O16   C8    1.309 1_545  A
C5    O13   1.309 1_455  A
C6    O14   1.309 1_655  A
C7    O15   1.309 1_565  A
C8    O16   1.309 1_565  A
C41   C45   1.383 .      A
C41   C61   1.380 .      A
C42   C46   1.383 .      A
C42   C62   1.379 .      A
C43   C47   1.383 .      A
C43   C63   1.380 .      A
C44   C48   1.383 .      A
C44   C64   1.379 .      A
C45   C49   1.385 .      A
C46   C50   1.385 .      A
C47   C51   1.385 1_565  A
C48   C52   1.385 1_565  A
C49   C53   1.385 .      A
C50   C54   1.385 .      A
C51   C47   1.385 1_545  A
C51   C55   1.385 1_545  A
C52   C48   1.385 1_545  A
C52   C56   1.385 1_545  A
C53   C57   1.383 .      A
C54   C58   1.383 .      A
C55   C51   1.385 1_565  A
C55   C59   1.383 .      A
C56   C52   1.385 1_565  A
C56   C60   1.383 .      A
C57   C61   1.380 .      A
C58   C62   1.380 .      A
C59   C63   1.380 .      A
C60   C64   1.380 .      A
C73   C77   1.383 .      A
C73   C93   1.379 .      A
C74   C78   1.383 .      A
C74   C94   1.379 .      A
C75   C79   1.383 .      A
C75   C95   1.379 1_545  A
C76   C80   1.383 .      A
C76   C96   1.379 1_545  A
C77   C81   1.385 .      A
C78   C82   1.385 .      A
C79   C83   1.385 1_545  A
C80   C84   1.385 1_545  A
C81   C85   1.385 .      A
C82   C86   1.385 .      A
C83   C79   1.385 1_565  A
C83   C87   1.385 .      A
C84   C80   1.385 1_565  A
C84   C88   1.385 .      A
C85   C89   1.383 .      A
C86   C90   1.383 .      A
C87   C91   1.383 .      A
C88   C92   1.383 .      A
C89   C93   1.380 .      A
C90   C94   1.380 .      A
C91   C95   1.380 .      A
C92   C96   1.380 .      A
C95   C75   1.379 1_565  A
C96   C76   1.379 1_565  A
O17   C97   1.314 1_455  A
O18   C97   1.314 .      A
O19   C98   1.314 .      A
O20   C98   1.314 .      A
C97   O17   1.314 1_655  A
O21   C99   1.309 .      A
O22   C100  1.309 .      A
O23   C101  1.309 1_565  A
O24   C102  1.309 1_565  A
O25   C99   1.309 1_655  A
O26   C100  1.309 1_455  A
O27   C101  1.309 .      A
O28   C102  1.309 .      A
C99   O25   1.309 1_455  A
C100  O26   1.309 1_655  A
C101  O23   1.309 1_545  A
C102  O24   1.309 1_545  A
O29   C103  1.314 .      A
O30   C103  1.314 1_655  A
O31   C104  1.314 .      A
O32   C104  1.314 .      A
C103  O30   1.314 1_455  A
O33   C105  1.314 .      A
O34   C105  1.314 .      A
O35   C106  1.314 1_455  A
O36   C106  1.314 .      A
C106  O35   1.314 1_655  A
O37   C107  1.314 .      A
O38   C108  1.314 .      A
O39   C109  1.314 .      A
O40   C110  1.314 .      A
O41   C107  1.314 .      A
O42   C108  1.314 .      A
O43   C109  1.314 .      A
O44   C110  1.314 .      A
O45   C111  1.314 .      A
O46   C111  1.314 .      A
O47   C112  1.314 .      A
O48   C112  1.314 1_655  A
C112  O48   1.314 1_455  A
C113  C117  1.381 .      A
C113  C123  1.379 .      A
C114  C118  1.381 .      A
C114  C123  1.379 .      A
C115  C119  1.381 .      A
C115  C124  1.379 .      A
C116  C120  1.381 .      A
C116  C124  1.379 1_655  A
C117  C121  1.384 .      A
C118  C121  1.384 .      A
C119  C122  1.384 .      A
C120  C122  1.384 1_655  A
C122  C120  1.384 1_455  A
C124  C116  1.379 1_455  A
C129  C133  1.381 .      A
C129  C139  1.379 1_655  A
C130  C134  1.381 .      A
C130  C139  1.379 .      A
C131  C135  1.381 .      A
C131  C140  1.379 .      A
C132  C136  1.381 .      A
C132  C140  1.379 .      A
C133  C137  1.384 1_655  A
C134  C137  1.384 .      A
C135  C138  1.384 .      A
C136  C138  1.384 .      A
C137  C133  1.384 1_455  A
C139  C129  1.379 1_455  A
C141  C145  1.381 .      A
C141  C151  1.379 .      A
C142  C146  1.381 .      A
C142  C151  1.379 .      A
C143  C147  1.381 .      A
C143  C152  1.379 .      A
C144  C148  1.381 .      A
C144  C152  1.379 1_455  A
C145  C149  1.384 .      A
C146  C149  1.384 .      A
C147  C150  1.384 .      A
C148  C150  1.384 1_455  A
C150  C148  1.384 1_655  A
C152  C144  1.379 1_655  A
C157  C161  1.381 .      A
C157  C167  1.379 1_655  A
C158  C162  1.381 .      A
C158  C167  1.379 .      A
C159  C163  1.381 .      A
C159  C168  1.379 .      A
C160  C164  1.381 .      A
C160  C168  1.379 .      A
C161  C165  1.384 1_655  A
C162  C165  1.384 .      A
C163  C166  1.384 .      A
C164  C166  1.384 .      A
C165  C161  1.384 1_455  A
C167  C157  1.379 1_455  A
C65   C69   1.210 .      T
C66   C70   1.210 .      T
C67   C71   1.210 .      T
C68   C72   1.210 .      T
C125  C128  1.208 .      T
C126  C127  1.208 .      T
C153  C156  1.208 .      T
C154  C155  1.208 .      T
